*BC109 from ZETEX BC109BP
*ZTX Si   4dB  20V  50mA 150MHz pkg:TO-18 3,2,1
.MODEL BC109 NPN(IS=1.8E-14 BF=400 NF=0.9955 VAF=80 IKF=0.14 ISE=5E-14 
+ NE=1.46 BR=35.5 NR=1.005 VAR=12.5 IKR=0.03 ISC=1.72E-13 NC=1.27 RB=0.56 
+ RE=0.6 RC=0.25 CJE=1.3E-11 TF=6.4E-10 CJC=4E-12 VJC=0.54 TR=5.072E-8 )

*BC179     BC 109 switched to PNP as an approximation
*ZTX Si   4dB  20V  50mA 150MHz pkg:TO-18 3,2,1
.MODEL BC179 PNP(IS=1.8E-14 BF=400 NF=0.9955 VAF=80 IKF=0.14 ISE=5E-14 
+ NE=1.46 BR=35.5 NR=1.005 VAR=12.5 IKR=0.03 ISC=1.72E-13 NC=1.27 RB=0.56 
+ RE=0.6 RC=0.25 CJE=1.3E-11 TF=6.4E-10 CJC=4E-12 VJC=0.54 TR=5.072E-8 )

* TL071 OPERATIONAL AMPLIFIER "MACROMODEL" SUBCIRCUIT
* CREATED USING PARTS RELEASE 4.01 ON 06/16/89 AT 13:08
* (REV N/A)      SUPPLY VOLTAGE: +/-15V
* CONNECTIONS:   NON-INVERTING INPUT
*                | INVERTING INPUT
*                | | POSITIVE POWER SUPPLY
*                | | | NEGATIVE POWER SUPPLY
*                | | | | OUTPUT
*                | | | | |
.SUBCKT TL071    1 2 3 4 5
*
  C1   11 12 3.498E-12
  C2    6  7 15.00E-12
  DC    5 53 DX
  DE   54  5 DX
  DLP  90 91 DX
  DLN  92 90 DX
  DP    4  3 DX
  EGND 99  0 POLY(2) (3,0) (4,0) 0 .5 .5
  FB    7 99 POLY(5) VB VC VE VLP VLN 0 4.715E6 -5E6 5E6 5E6 -5E6
  GA    6  0 11 12 282.8E-6
  GCM   0  6 10 99 8.942E-9
  ISS   3 10 DC 195.0E-6
  HLIM 90  0 VLIM 1K
  J1   11  2 10 JX
  J2   12  1 10 JX
  R2    6  9 100.0E3
  RD1   4 11 3.536E3
  RD2   4 12 3.536E3
  RO1   8  5 150
  RO2   7 99 150
  RP    3  4 2.143E3
  RSS  10 99 1.026E6
  VB    9  0 DC 0
  VC    3 53 DC 2.200
  VE   54  4 DC 2.200
  VLIM  7  8 DC 0
  VLP  91  0 DC 25
  VLN   0 92 DC 25
.MODEL DX D(IS=800.0E-18)
.MODEL JX PJF(IS=15.00E-12 BETA=270.1E-6 VTO=-1)
.ENDS

* UA741 OPERATIONAL AMPLIFIER "MACROMODEL" SUBCIRCUIT
* CREATED USING PARTS RELEASE 4.01 ON 07/05/89 AT 09:09
* (REV N/A)      SUPPLY VOLTAGE: +/-15V
* CONNECTIONS:   NON-INVERTING INPUT
*                | INVERTING INPUT
*                | | POSITIVE POWER SUPPLY
*                | | | NEGATIVE POWER SUPPLY
*                | | | | OUTPUT
*                | | | | |
.SUBCKT UA741    1 2 3 4 5
*
  C1   11 12 4.664E-12
  C2    6  7 20.00E-12
  DC    5 53 DX
  DE   54  5 DX
  DLP  90 91 DX
  DLN  92 90 DX
  DP    4  3 DX
  EGND 99  0 POLY(2) (3,0) (4,0) 0 .5 .5
  FB    7 99 POLY(5) VB VC VE VLP VLN 0 10.61E6 -10E6 10E6 10E6 -10E6
  GA 6  0 11 12 137.7E-6
  GCM 0  6 10 99 2.574E-9
  IEE  10  4 DC 10.16E-6
  HLIM 90  0 VLIM 1K
  Q1   11  2 13 QX
  Q2   12  1 14 QX
  R2    6  9 100.0E3
  RC1   3 11 7.957E3
  RC2   3 12 7.957E3
  RE1  13 10 2.740E3
  RE2  14 10 2.740E3
  REE  10 99 19.69E6
  RO1   8  5 150
  RO2   7 99 150
  RP    3  4 18.11E3
  VB    9  0 DC 0
  VC 3 53 DC 2.600
  VE   54  4 DC 2.600
  VLIM  7  8 DC 0
  VLP  91  0 DC 25
  VLN   0 92 DC 25
.MODEL DX D(IS=800.0E-18)
.MODEL QX NPN(IS=800.0E-18 BF=62.50)
.ENDS
